
 OpenBabel09192417063D
Schrodinger Suite 2024-1.
 26 26  0  0  1  0  0  0  0  0999 V2000
  -34.6150    2.9220  -15.0290 O   0  0  0  0  0  0  0  0  0  0  0  0
  -33.3110    3.2770  -15.6730 P   0  0  0  0  0  0  0  0  0  0  0  0
  -32.6330    2.1030  -16.3240 O   0  0  0  0  0  0  0  0  0  0  0  0
  -33.4550    4.4020  -16.6080 O   0  0  0  0  0  0  0  0  0  0  0  0
  -32.3050    3.8700  -14.3090 C   0  0  0  0  0  0  0  0  0  0  0  0
  -33.2580    5.0770  -13.2610 P   0  0  0  0  0  0  0  0  0  0  0  0
  -32.4610    5.5460  -12.1110 O   0  0  0  0  0  0  0  0  0  0  0  0
  -34.4210    4.0280  -12.6900 O   0  0  0  0  0  0  0  0  0  0  0  0
  -33.8810    6.0420  -14.1770 O   0  0  0  0  0  0  0  0  0  0  0  0
  -32.0050    2.7130  -13.5680 O   0  0  0  0  0  0  0  0  0  0  0  0
  -30.9730    4.5750  -14.7160 C   0  0  0  0  0  0  0  0  0  0  0  0
  -29.9690    3.8020  -15.4640 N   0  0  0  0  0  0  0  0  0  0  0  0
  -29.3910    2.6800  -15.0110 C   0  0  0  0  0  0  0  0  0  0  0  0
  -28.4580    2.3320  -15.8990 N   0  0  0  0  0  0  0  0  0  0  0  0
  -28.4120    3.2430  -16.9160 C   0  0  0  0  0  0  0  0  0  0  0  0
  -29.3640    4.1850  -16.6340 C   0  0  0  0  0  0  0  0  0  0  0  0
  -35.2278    2.5878  -15.7025 H   0  0  0  0  0  0  0  0  0  0  0  0
  -33.1770    1.7832  -17.0607 H   0  0  0  0  0  0  0  0  0  0  0  0
  -32.1266    4.7817  -11.6162 H   0  0  0  0  0  0  0  0  0  0  0  0
  -34.0118    3.3898  -12.0849 H   0  0  0  0  0  0  0  0  0  0  0  0
  -32.8292    2.2702  -13.3120 H   0  0  0  0  0  0  0  0  0  0  0  0
  -30.5052    4.9110  -13.8142 H   0  0  0  0  0  0  0  0  0  0  0  0
  -31.2794    5.3379  -15.4009 H   0  0  0  0  0  0  0  0  0  0  0  0
  -29.6241    2.1796  -14.1391 H   0  0  0  0  0  0  0  0  0  0  0  0
  -27.7839    3.2245  -17.7346 H   0  0  0  0  0  0  0  0  0  0  0  0
  -29.5845    5.0231  -17.1944 H   0  0  0  0  0  0  0  0  0  0  0  0
  1  2  1  0  0  0  0
  1 17  1  0  0  0  0
  2  3  1  0  0  0  0
  2  4  2  0  0  0  0
  2  5  1  0  0  0  0
  3 18  1  0  0  0  0
  5  6  1  0  0  0  0
  5 10  1  0  0  0  0
  5 11  1  0  0  0  0
  6  7  1  0  0  0  0
  6  8  1  0  0  0  0
  6  9  2  0  0  0  0
  7 19  1  0  0  0  0
  8 20  1  0  0  0  0
 10 21  1  0  0  0  0
 11 12  1  0  0  0  0
 11 22  1  0  0  0  0
 11 23  1  0  0  0  0
 12 13  1  0  0  0  0
 12 16  1  0  0  0  0
 13 14  2  0  0  0  0
 13 24  1  0  0  0  0
 14 15  1  0  0  0  0
 15 16  2  0  0  0  0
 15 25  1  0  0  0  0
 16 26  1  0  0  0  0
M  END
>  <s_pdb_PDB_format_version>
3.0

$$$$
