
 OpenBabel09192416273D
Schrodinger Suite 2024-1.
 43 45  0  0  1  0  0  0  0  0999 V2000
  -15.8660   56.9440   -4.9900 P   0  0  0  0  0  0  0  0  0  0  0  0
  -14.4980   56.4090   -5.3620 O   0  0  0  0  0  0  0  0  0  0  0  0
  -16.8610   55.8450   -4.7440 O   0  0  0  0  0  0  0  0  0  0  0  0
  -15.8180   57.9330   -3.8440 O   0  0  0  0  0  0  0  0  0  0  0  0
  -16.3980   57.7430   -6.2880 O   0  0  0  0  0  0  0  0  0  0  0  0
  -17.7730   58.3900   -7.0190 P   0  0  1  0  0  0  0  0  0  0  0  0
  -18.3470   57.3750   -7.9340 O   0  0  0  0  0  0  0  0  0  0  0  0
  -18.6150   59.0160   -5.9790 O   0  0  0  0  0  0  0  0  0  0  0  0
  -17.0410   59.6120   -7.9350 O   0  0  0  0  0  0  0  0  0  0  0  0
  -16.1620   59.2800   -8.9870 C   0  0  0  0  0  0  0  0  0  0  0  0
  -16.2200   60.3140  -10.1100 C   0  0  1  0  0  0  0  0  0  0  0  0
  -15.5490   59.7290  -11.2280 O   0  0  0  0  0  0  0  0  0  0  0  0
  -17.6520   60.6230  -10.5750 C   0  0  1  0  0  0  0  0  0  0  0  0
  -17.7560   62.0010  -10.8840 O   0  0  0  0  0  0  0  0  0  0  0  0
  -17.8430   59.7300  -11.7920 C   0  0  1  0  0  0  0  0  0  0  0  0
  -18.6940   60.3170  -12.7490 O   0  0  0  0  0  0  0  0  0  0  0  0
  -16.4130   59.5580  -12.3080 C   0  0  2  0  0  0  0  0  0  0  0  0
  -16.2330   58.1710  -12.8360 N   0  0  0  0  0  0  0  0  0  0  0  0
  -16.4370   56.9760  -12.1920 C   0  0  0  0  0  0  0  0  0  0  0  0
  -16.2770   55.9200  -12.9350 N   0  0  0  0  0  0  0  0  0  0  0  0
  -15.9290   56.4430  -14.1730 C   0  0  0  0  0  0  0  0  0  0  0  0
  -15.6500   55.7740  -15.4080 C   0  0  0  0  0  0  0  0  0  0  0  0
  -15.6580   54.5690  -15.6340 O   0  0  0  0  0  0  0  0  0  0  0  0
  -15.3250   56.6670  -16.4310 N   0  0  0  0  0  0  0  0  0  0  0  0
  -15.2840   58.0480  -16.2810 C   0  0  0  0  0  0  0  0  0  0  0  0
  -14.9690   58.7640  -17.3650 N   0  0  0  0  0  0  0  0  0  0  0  0
  -15.5380   58.6660  -15.1420 N   0  0  0  0  0  0  0  0  0  0  0  0
  -15.8590   57.8190  -14.1140 C   0  0  0  0  0  0  0  0  0  0  0  0
  -16.5881   55.3293   -3.9691 H   0  0  0  0  0  0  0  0  0  0  0  0
  -15.5012   57.4855   -3.0438 H   0  0  0  0  0  0  0  0  0  0  0  0
  -19.0398   58.3247   -5.4475 H   0  0  0  0  0  0  0  0  0  0  0  0
  -16.4357   58.3233   -9.3803 H   0  0  0  0  0  0  0  0  0  0  0  0
  -15.1651   59.2603   -8.5989 H   0  0  0  0  0  0  0  0  0  0  0  0
  -15.7844   61.2229   -9.7509 H   0  0  0  0  0  0  0  0  0  0  0  0
  -18.4053   60.4326   -9.8394 H   0  0  0  0  0  0  0  0  0  0  0  0
  -17.0918   62.2337  -11.5516 H   0  0  0  0  0  0  0  0  0  0  0  0
  -18.3195   58.7991  -11.5656 H   0  0  0  0  0  0  0  0  0  0  0  0
  -18.3352   61.1777  -13.0161 H   0  0  0  0  0  0  0  0  0  0  0  0
  -16.2142   60.2667  -13.0846 H   0  0  0  0  0  0  0  0  0  0  0  0
  -16.6973   56.9196  -11.1950 H   0  0  0  0  0  0  0  0  0  0  0  0
  -15.1109   56.2939  -17.3165 H   0  0  0  0  0  0  0  0  0  0  0  0
  -14.7786   58.3092  -18.2171 H   0  0  0  0  0  0  0  0  0  0  0  0
  -14.9275   59.7462  -17.3112 H   0  0  0  0  0  0  0  0  0  0  0  0
  1  2  2  0  0  0  0
  1  3  1  0  0  0  0
  1  4  1  0  0  0  0
  1  5  1  0  0  0  0
  3 29  1  0  0  0  0
  4 30  1  0  0  0  0
  5  6  1  0  0  0  0
  6  7  2  6  0  0  0
  6  8  1  0  0  0  0
  6  9  1  0  0  0  0
  8 31  1  0  0  0  0
  9 10  1  0  0  0  0
 10 11  1  0  0  0  0
 10 32  1  0  0  0  0
 10 33  1  0  0  0  0
 11 12  1  0  0  0  0
 11 13  1  0  0  0  0
 11 34  1  1  0  0  0
 12 17  1  0  0  0  0
 13 14  1  0  0  0  0
 13 15  1  0  0  0  0
 13 35  1  1  0  0  0
 14 36  1  0  0  0  0
 15 16  1  0  0  0  0
 15 17  1  0  0  0  0
 15 37  1  1  0  0  0
 16 38  1  0  0  0  0
 17 18  1  0  0  0  0
 17 39  1  6  0  0  0
 18 19  1  0  0  0  0
 18 28  1  0  0  0  0
 19 20  2  0  0  0  0
 19 40  1  0  0  0  0
 20 21  1  0  0  0  0
 21 22  1  0  0  0  0
 21 28  2  0  0  0  0
 22 23  2  0  0  0  0
 22 24  1  0  0  0  0
 24 25  1  0  0  0  0
 24 41  1  0  0  0  0
 25 26  1  0  0  0  0
 25 27  2  0  0  0  0
 26 42  1  0  0  0  0
 26 43  1  0  0  0  0
 27 28  1  0  0  0  0
M  END
>  <s_pdb_PDB_format_version>
3.0

$$$$
