Structure4
                    3D
 Structure written by MMmdl.
 48 51  0  0  1  0            999 V2000
   65.0650   80.4980    3.0640 C   0  0  0  0  0  0
   71.8380   81.4710    6.7590 C   0  0  0  0  0  0
   72.6340   81.9950    7.7900 C   0  0  0  0  0  0
   72.9140   81.2660    8.9030 C   0  0  0  0  0  0
   72.4090   79.9530    9.0560 C   0  0  0  0  0  0
   71.6010   79.4100    8.0230 C   0  0  0  0  0  0
   71.0900   78.0980    8.1640 C   0  0  0  0  0  0
   71.3740   77.3650    9.2830 C   0  0  0  0  0  0
   72.1730   77.9020   10.3040 C   0  0  0  0  0  0
   72.6770   79.1590   10.1960 C   0  0  0  0  0  0
   69.5420   82.3730    2.7790 C   0  0  0  0  0  0
   64.0290   80.8760    3.9130 C   0  0  0  0  0  0
   68.5510   83.1510    1.9460 C   0  0  0  0  0  0
   67.9020   84.0440    2.9920 C   0  0  0  0  0  0
   64.2050   81.9150    4.7770 C   0  0  0  0  0  0
   63.0930   82.3450    5.7130 C   0  0  0  0  0  0
   66.3600   82.2640    4.0390 C   0  0  0  0  0  0
   67.6400   83.0630    4.1480 C   0  0  1  0  0  0
   69.1400   81.3270    5.0270 C   0  0  0  0  0  0
   70.2270   80.3180    4.7620 C   0  0  0  0  0  0
   71.3270   80.2050    6.8720 C   0  0  0  0  0  0
   65.3520   82.6050    4.8430 N   0  0  0  0  0  0
   68.8180   82.1830    4.0440 N   0  0  0  0  0  0
   66.2320   81.2240    3.1560 N   0  0  0  0  0  0
   64.9830   79.5640    2.2520 O   0  0  0  0  0  0
   62.8950   80.1670    3.8200 O   0  0  0  0  0  0
   63.3380   83.2800    6.4960 O   0  5  0  0  0  0
   62.0130   81.7340    5.6310 O   0  0  0  0  0  0
   70.5500   79.5890    5.9390 O   0  0  0  0  0  0
   68.5680   81.3800    6.1120 O   0  0  0  0  0  0
   71.6308   82.0655    5.8815 H   0  0  0  0  0  0
   73.0360   82.9940    7.7073 H   0  0  0  0  0  0
   73.5289   81.6878    9.6843 H   0  0  0  0  0  0
   70.4733   77.6722    7.3863 H   0  0  0  0  0  0
   70.9824   76.3638    9.3865 H   0  0  0  0  0  0
   72.3914   77.3151   11.1839 H   0  0  0  0  0  0
   73.2894   79.5504   10.9949 H   0  0  0  0  0  0
   70.4227   82.9897    2.9584 H   0  0  0  0  0  0
   69.7164   81.4019    2.3157 H   0  0  0  0  0  0
   67.8033   82.4659    1.5464 H   0  0  0  0  0  0
   69.0926   83.7713    1.2319 H   0  0  0  0  0  0
   66.9494   84.4108    2.6097 H   0  0  0  0  0  0
   68.6200   84.7973    3.3163 H   0  0  0  0  0  0
   67.6615   83.5976    5.0976 H   0  0  0  0  0  0
   71.1169   80.8308    4.3971 H   0  0  0  0  0  0
   69.8990   79.6268    3.9856 H   0  0  0  0  0  0
   67.0178   80.9940    2.5646 H   0  0  0  0  0  0
   63.0203   79.6215    4.6000 H   0  0  0  0  0  0
  1 12  1  0  0  0
  1 24  1  0  0  0
  1 25  2  0  0  0
  2  3  1  0  0  0
  2 21  2  0  0  0
  2 31  1  0  0  0
  3  4  2  0  0  0
  3 32  1  0  0  0
  4  5  1  0  0  0
  4 33  1  0  0  0
  5  6  2  0  0  0
  5 10  1  0  0  0
  6  7  1  0  0  0
  6 21  1  0  0  0
  7  8  2  0  0  0
  7 34  1  0  0  0
  8  9  1  0  0  0
  8 35  1  0  0  0
  9 10  2  0  0  0
  9 36  1  0  0  0
 10 37  1  0  0  0
 11 13  1  0  0  0
 11 23  1  0  0  0
 11 38  1  0  0  0
 11 39  1  0  0  0
 12 15  2  0  0  0
 12 26  1  0  0  0
 13 14  1  0  0  0
 13 40  1  0  0  0
 13 41  1  0  0  0
 14 18  1  0  0  0
 14 42  1  0  0  0
 14 43  1  0  0  0
 15 16  1  0  0  0
 15 22  1  0  0  0
 16 27  1  0  0  0
 16 28  2  0  0  0
 17 18  1  0  0  0
 17 22  2  0  0  0
 17 24  1  0  0  0
 18 23  1  0  0  0
 18 44  1  0  0  0
 19 20  1  0  0  0
 19 23  1  0  0  0
 19 30  2  0  0  0
 20 29  1  0  0  0
 20 45  1  0  0  0
 20 46  1  0  0  0
 21 29  1  0  0  0
 24 47  1  0  0  0
 26 48  1  0  0  0
M  CHG  1  27  -1
M  END
> <i_m_stars>
0

> <s_m_entry_id>
4

> <s_m_entry_name>
Structure4

> <s_pdb_PDB_TITLE>
CRYSTAL STRUCTURE OF THE INFLUENZA VIRUS PA ENDONUCLEASE IN COMPLEX WITH INHIBITOR 6B (SRI-29789)

> <s_pdb_PDB_ID>
5WCS

> <r_pdb_PDB_CRYST1_a>
74.666

> <r_pdb_PDB_CRYST1_b>
74.666

> <r_pdb_PDB_CRYST1_c>
125.722

> <r_pdb_PDB_CRYST1_alpha>
90

> <r_pdb_PDB_CRYST1_beta>
90

> <r_pdb_PDB_CRYST1_gamma>
120

> <s_pdb_PDB_CRYST1_Space_Group>
P 64 2 2

> <i_pdb_PDB_CRYST1_z>
12

> <s_pdb_PDB_CLASSIFICATION>
HYDROLASE/HYDROLASE INHIBITOR

> <s_pdb_PDB_DEPOSITION_DATE>
01-JUL-17

> <s_pdb_PDB_format_version>
3.30

> <r_pdb_PDB_R>
0.206000000238419

> <r_pdb_PDB_Rfree>
0.239999994635582

> <r_pdb_PDB_RESOLUTION>
2.53

> <s_pdb_PDB_EXPDTA>
X-RAY DIFFRACTION

> <r_pdb_PDB_EXPDTA_TEMPERATURE>
100

> <r_pdb_PDB_EXPDTA_PH>
8.5

> <s_pdb_PDB_REMARK_350_Biomolecule_1_Chains>
A

> <s_pdb_PDB_REMARK_350_Biomolecule_1_Transformation_1>
1.000000 0.000000 0.000000   0.000000;0.000000 1.000000 0.000000   0.000000;0.000000 0.000000 1.000000   0.000000

> <s_pdb_PDB_REMARK_350_Biomolecule_1_Transformation_2>
1.000000 0.000000 0.000000   0.000000;0.000000 -1.000000 0.000000   129.325310;0.000000 0.000000 -1.000000   0.000000

> <s_pdb_PDB_REMARK_350_Biomolecule_2_Chains>
A

> <s_pdb_PDB_REMARK_350_Biomolecule_2_Transformation_1>
1.000000 0.000000 0.000000   0.000000;0.000000 1.000000 0.000000   0.000000;0.000000 0.000000 1.000000   0.000000

> <s_m_Source_Path>
D:\Downloads

> <s_m_Source_File>
5wcs.pdb

> <i_m_Source_File_Index>
1

> <s_ppw_entry_id_backup>
2

> <b_ppw_prepared>
1

> <s_ppw_prepared_with_version>
2018-3

> <b_ppw_assigned_bond_orders>
1

> <b_ppw_added_hydrogens>
1

> <b_ppw_treated_metals>
1

> <b_ppw_created_disulfur>
1

> <b_ppw_deleted_far_waters>
1

> <i_psp_model_num>
0

> <r_psp_Prime_Coulomb>
-5626.08824446039

> <r_psp_Prime_Covalent>
962.89215514819

> <r_psp_Prime_vdW>
266.382370652164

> <r_psp_Prime_Solv_GB>
-1691.56829453073

> <r_psp_Prime_Lipo>
-437.521334888265

> <r_psp_Prime_Energy>
-6679.62260906794

> <s_psp_Prime_Energy_Force_Field>
OPLS3e

> <s_psp_Prime_Energy_Solvent_Model>
VSGB2.1

> <r_psp_Prime_Hbond>
-115.200110940968

> <r_psp_Prime_Packing>
-22.5032300141654

> <r_psp_Prime_SelfCont>
-16.0159200337734

$$$$
