
 OpenBabel09192417543D
Schrodinger Suite 2024-1.
 44 46  0  0  1  0  0  0  0  0999 V2000
   -3.2160   -1.8110   85.3610 N   0  0  0  0  0  0  0  0  0  0  0  0
   -2.4700   -2.4190   84.4050 C   0  0  0  0  0  0  0  0  0  0  0  0
    3.6600   -4.1590   84.4190 C   0  0  0  0  0  0  0  0  0  0  0  0
   -5.4030   -1.0350   84.4620 C   0  0  0  0  0  0  0  0  0  0  0  0
   -6.8640   -1.4410   84.1850 C   0  0  0  0  0  0  0  0  0  0  0  0
   -7.9020   -0.4610   84.7450 C   0  0  0  0  0  0  0  0  0  0  0  0
    1.3420   -2.3300   83.6280 C   0  0  0  0  0  0  0  0  0  0  0  0
    1.7640   -1.5190   84.7030 C   0  0  0  0  0  0  0  0  0  0  0  0
    0.8390   -1.0210   85.6280 C   0  0  0  0  0  0  0  0  0  0  0  0
   -0.5210   -1.3220   85.4970 C   0  0  0  0  0  0  0  0  0  0  0  0
   -0.9810   -2.1570   84.4520 C   0  0  0  0  0  0  0  0  0  0  0  0
   -0.0390   -2.6720   83.4980 C   0  0  0  0  0  0  0  0  0  0  0  0
    2.3880   -2.7240   82.6380 C   0  0  0  0  0  0  0  0  0  0  0  0
    3.4500   -3.6390   83.1130 C   0  0  0  0  0  0  0  0  0  0  0  0
    4.4680   -4.1550   82.3730 C   0  0  0  0  0  0  0  0  0  0  0  0
   -4.6700   -1.9750   85.4410 C   0  0  0  0  0  0  0  0  0  0  0  0
   -0.5000   -3.5470   82.3290 C   0  0  0  0  0  0  0  0  0  0  0  0
    6.4550   -5.6740   82.9270 C   0  0  0  0  0  0  0  0  0  0  0  0
   -1.4040   -0.7500   86.4390 N   0  0  0  0  0  0  0  0  0  0  0  0
   -2.6330   -0.9810   86.3560 N   0  0  0  0  0  0  0  0  0  0  0  0
    5.2510   -4.9210   83.2130 N   0  0  0  0  0  0  0  0  0  0  0  0
    4.7440   -4.9230   84.4680 N   0  0  0  0  0  0  0  0  0  0  0  0
    2.3800   -2.3200   81.4750 O   0  0  0  0  0  0  0  0  0  0  0  0
   -2.9860   -3.1390   83.5510 O   0  0  0  0  0  0  0  0  0  0  0  0
    4.7510   -3.9960   81.0690 O   0  0  0  0  0  0  0  0  0  0  0  0
    3.0472   -3.9668   85.2268 H   0  0  0  0  0  0  0  0  0  0  0  0
   -5.3998   -0.0482   84.8757 H   0  0  0  0  0  0  0  0  0  0  0  0
   -4.8823   -1.0898   83.5289 H   0  0  0  0  0  0  0  0  0  0  0  0
   -7.0356   -2.4007   84.6258 H   0  0  0  0  0  0  0  0  0  0  0  0
   -6.9868   -1.4471   83.1221 H   0  0  0  0  0  0  0  0  0  0  0  0
   -7.8166   -0.4215   85.8109 H   0  0  0  0  0  0  0  0  0  0  0  0
   -8.8843   -0.7907   84.4779 H   0  0  0  0  0  0  0  0  0  0  0  0
   -7.7295    0.5130   84.3370 H   0  0  0  0  0  0  0  0  0  0  0  0
    2.7649   -1.2907   84.8082 H   0  0  0  0  0  0  0  0  0  0  0  0
    1.1615   -0.4295   86.4097 H   0  0  0  0  0  0  0  0  0  0  0  0
   -4.9897   -1.7553   86.4382 H   0  0  0  0  0  0  0  0  0  0  0  0
   -4.9077   -2.9842   85.1767 H   0  0  0  0  0  0  0  0  0  0  0  0
    0.3465   -3.8268   81.7374 H   0  0  0  0  0  0  0  0  0  0  0  0
   -1.1922   -2.9989   81.7245 H   0  0  0  0  0  0  0  0  0  0  0  0
   -0.9765   -4.4268   82.7082 H   0  0  0  0  0  0  0  0  0  0  0  0
    6.7100   -5.5600   81.8941 H   0  0  0  0  0  0  0  0  0  0  0  0
    6.2877   -6.7089   83.1410 H   0  0  0  0  0  0  0  0  0  0  0  0
    7.2566   -5.3092   83.5347 H   0  0  0  0  0  0  0  0  0  0  0  0
    5.1046   -5.3936   85.2540 H   0  0  0  0  0  0  0  0  0  0  0  0
  1  2  1  0  0  0  0
  1 16  1  0  0  0  0
  1 20  1  0  0  0  0
  2 11  1  0  0  0  0
  2 24  2  0  0  0  0
  3 14  2  0  0  0  0
  3 22  1  0  0  0  0
  3 26  1  0  0  0  0
  4  5  1  0  0  0  0
  4 16  1  0  0  0  0
  4 27  1  0  0  0  0
  4 28  1  0  0  0  0
  5  6  1  0  0  0  0
  5 29  1  0  0  0  0
  5 30  1  0  0  0  0
  6 31  1  0  0  0  0
  6 32  1  0  0  0  0
  6 33  1  0  0  0  0
  7  8  1  0  0  0  0
  7 12  2  0  0  0  0
  7 13  1  0  0  0  0
  8  9  2  0  0  0  0
  8 34  1  0  0  0  0
  9 10  1  0  0  0  0
  9 35  1  0  0  0  0
 10 11  2  0  0  0  0
 10 19  1  0  0  0  0
 11 12  1  0  0  0  0
 12 17  1  0  0  0  0
 13 14  1  0  0  0  0
 13 23  2  0  0  0  0
 14 15  1  0  0  0  0
 15 21  1  0  0  0  0
 15 25  2  0  0  0  0
 16 36  1  0  0  0  0
 16 37  1  0  0  0  0
 17 38  1  0  0  0  0
 17 39  1  0  0  0  0
 17 40  1  0  0  0  0
 18 21  1  0  0  0  0
 18 41  1  0  0  0  0
 18 42  1  0  0  0  0
 18 43  1  0  0  0  0
 19 20  2  0  0  0  0
 21 22  1  0  0  0  0
 22 44  1  0  0  0  0
M  END
>  <s_pdb_PDB_format_version>
3.0

$$$$
