
 OpenBabel09192418453D
Schrodinger Suite 2024-1.
 49 51  0  0  1  0  0  0  0  0999 V2000
   -9.9710   64.1850  -66.4390 P   0  0  0  0  0  0  0  0  0  0  0  0
   -9.0510   63.7550  -65.3190 O   0  0  0  0  0  0  0  0  0  0  0  0
  -10.8940   65.2850  -66.0130 O   0  0  0  0  0  0  0  0  0  0  0  0
  -10.7230   63.0120  -67.0120 O   0  0  0  0  0  0  0  0  0  0  0  0
   -8.9260   64.8490  -67.7060 N   0  0  0  0  0  0  0  0  0  0  0  0
   -9.6320   65.4070  -69.1440 P   0  0  1  0  0  0  0  0  0  0  0  0
  -10.0170   64.2730  -70.0320 O   0  0  0  0  0  0  0  0  0  0  0  0
  -10.7070   66.3900  -68.8810 O   0  0  0  0  0  0  0  0  0  0  0  0
   -8.3280   66.1290  -69.7790 O   0  0  0  0  0  0  0  0  0  0  0  0
   -7.8970   67.7660  -69.7030 P   0  0  1  0  0  0  0  0  0  0  0  0
   -8.8390   68.5460  -70.5310 O   0  0  0  0  0  0  0  0  0  0  0  0
   -7.6690   68.1510  -68.2950 O   0  0  0  0  0  0  0  0  0  0  0  0
   -6.4110   67.7420  -70.5070 O   0  0  0  0  0  0  0  0  0  0  0  0
   -5.3060   67.0500  -69.9710 C   0  0  0  0  0  0  0  0  0  0  0  0
   -4.0130   67.6750  -70.4890 C   0  0  1  0  0  0  0  0  0  0  0  0
   -3.9730   67.4900  -71.9020 O   0  0  0  0  0  0  0  0  0  0  0  0
   -3.9240   69.1850  -70.2270 C   0  0  1  0  0  0  0  0  0  0  0  0
   -2.5870   69.5070  -69.8840 O   0  0  0  0  0  0  0  0  0  0  0  0
   -4.3380   69.7850  -71.5630 C   0  0  1  0  0  0  0  0  0  0  0  0
   -3.7400   71.0390  -71.7890 O   0  0  0  0  0  0  0  0  0  0  0  0
   -3.8460   68.7210  -72.5360 C   0  0  2  0  0  0  0  0  0  0  0  0
   -4.7030   68.6920  -73.7540 N   0  0  0  0  0  0  0  0  0  0  0  0
   -6.0610   68.5210  -73.8420 C   0  0  0  0  0  0  0  0  0  0  0  0
   -6.5330   68.5730  -75.0540 N   0  0  0  0  0  0  0  0  0  0  0  0
   -5.4090   68.7900  -75.8400 C   0  0  0  0  0  0  0  0  0  0  0  0
   -5.2890   68.9480  -77.2590 C   0  0  0  0  0  0  0  0  0  0  0  0
   -6.1770   68.9030  -78.1030 O   0  0  0  0  0  0  0  0  0  0  0  0
   -3.9660   69.1520  -77.6580 N   0  0  0  0  0  0  0  0  0  0  0  0
   -2.8850   69.1990  -76.7880 C   0  0  0  0  0  0  0  0  0  0  0  0
   -1.6850   69.4230  -77.3290 N   0  0  0  0  0  0  0  0  0  0  0  0
   -2.9920   69.0400  -75.4820 N   0  0  0  0  0  0  0  0  0  0  0  0
   -4.2770   68.8430  -75.0540 C   0  0  0  0  0  0  0  0  0  0  0  0
  -11.4854   64.9593  -65.3165 H   0  0  0  0  0  0  0  0  0  0  0  0
  -11.3015   62.6349  -66.3308 H   0  0  0  0  0  0  0  0  0  0  0  0
   -8.2642   64.1164  -67.9623 H   0  0  0  0  0  0  0  0  0  0  0  0
  -11.4754   65.9352  -68.5020 H   0  0  0  0  0  0  0  0  0  0  0  0
   -8.5164   68.1681  -67.8232 H   0  0  0  0  0  0  0  0  0  0  0  0
   -5.3499   66.0232  -70.2687 H   0  0  0  0  0  0  0  0  0  0  0  0
   -5.3296   67.1136  -68.9032 H   0  0  0  0  0  0  0  0  0  0  0  0
   -3.2021   67.2013  -69.9762 H   0  0  0  0  0  0  0  0  0  0  0  0
   -4.5339   69.5452  -69.4250 H   0  0  0  0  0  0  0  0  0  0  0  0
   -1.9905   69.1992  -70.5842 H   0  0  0  0  0  0  0  0  0  0  0  0
   -5.3847   69.9921  -71.6437 H   0  0  0  0  0  0  0  0  0  0  0  0
   -2.7754   70.9516  -71.7352 H   0  0  0  0  0  0  0  0  0  0  0  0
   -2.8358   68.9317  -72.8187 H   0  0  0  0  0  0  0  0  0  0  0  0
   -6.6591   68.3641  -73.0157 H   0  0  0  0  0  0  0  0  0  0  0  0
   -3.7884   69.2702  -78.6191 H   0  0  0  0  0  0  0  0  0  0  0  0
   -1.5984   69.5424  -78.3024 H   0  0  0  0  0  0  0  0  0  0  0  0
   -0.8868   69.4687  -76.7545 H   0  0  0  0  0  0  0  0  0  0  0  0
  1  2  2  0  0  0  0
  1  3  1  0  0  0  0
  1  4  1  0  0  0  0
  1  5  1  0  0  0  0
  3 33  1  0  0  0  0
  4 34  1  0  0  0  0
  5  6  1  0  0  0  0
  5 35  1  0  0  0  0
  6  7  2  6  0  0  0
  6  8  1  0  0  0  0
  6  9  1  0  0  0  0
  8 36  1  0  0  0  0
  9 10  1  0  0  0  0
 10 11  2  6  0  0  0
 10 12  1  0  0  0  0
 10 13  1  0  0  0  0
 12 37  1  0  0  0  0
 13 14  1  0  0  0  0
 14 15  1  0  0  0  0
 14 38  1  0  0  0  0
 14 39  1  0  0  0  0
 15 16  1  0  0  0  0
 15 17  1  0  0  0  0
 15 40  1  1  0  0  0
 16 21  1  0  0  0  0
 17 18  1  0  0  0  0
 17 19  1  0  0  0  0
 17 41  1  1  0  0  0
 18 42  1  0  0  0  0
 19 20  1  0  0  0  0
 19 21  1  0  0  0  0
 19 43  1  6  0  0  0
 20 44  1  0  0  0  0
 21 22  1  0  0  0  0
 21 45  1  6  0  0  0
 22 23  1  0  0  0  0
 22 32  1  0  0  0  0
 23 24  2  0  0  0  0
 23 46  1  0  0  0  0
 24 25  1  0  0  0  0
 25 26  1  0  0  0  0
 25 32  2  0  0  0  0
 26 27  2  0  0  0  0
 26 28  1  0  0  0  0
 28 29  1  0  0  0  0
 28 47  1  0  0  0  0
 29 30  1  0  0  0  0
 29 31  2  0  0  0  0
 30 48  1  0  0  0  0
 30 49  1  0  0  0  0
 31 32  1  0  0  0  0
M  END
>  <s_pdb_PDB_format_version>
3.0

$$$$
