
     RDKit          3D

 25 27  0  0  0  0  0  0  0  0999 V2000
   -2.2733    3.4519   -2.0017 C   0  0  0  0  0  0  0  0  0  0  0  0
   -2.5468    2.3391   -1.0543 C   0  0  0  0  0  0  0  0  0  0  0  0
   -3.7767    1.9815   -0.5275 C   0  0  0  0  0  0  0  0  0  0  0  0
   -3.5904    0.6492    0.5346 S   0  0  0  0  0  0  0  0  0  0  0  0
   -1.9089    0.6168    0.1909 C   0  0  0  0  0  0  0  0  0  0  0  0
   -1.4840    1.5534   -0.6369 N   0  0  0  0  0  0  0  0  0  0  0  0
   -1.0079   -0.4114    0.8362 C   0  0  1  0  0  0  0  0  0  0  0  0
   -0.6122   -1.5120   -0.1708 C   0  0  0  0  0  0  0  0  0  0  0  0
   -1.7480   -2.4324   -0.5316 C   0  0  0  0  0  0  0  0  0  0  0  0
   -2.1821   -3.5359    0.2745 C   0  0  0  0  0  0  0  0  0  0  0  0
   -3.2463   -4.2105   -0.2810 C   0  0  0  0  0  0  0  0  0  0  0  0
   -3.7289   -3.5294   -1.7712 S   0  0  0  0  0  0  0  0  0  0  0  0
   -2.5102   -2.3339   -1.6812 C   0  0  0  0  0  0  0  0  0  0  0  0
    0.1709    0.3104    1.3131 N   0  0  0  0  0  0  0  0  0  0  0  0
    1.0374   -0.2406    2.2247 C   0  0  0  0  0  0  0  0  0  0  0  0
    0.8289   -1.3176    2.7773 O   0  0  0  0  0  0  0  0  0  0  0  0
    2.2790    0.5879    2.4945 C   0  0  0  0  0  0  0  0  0  0  0  0
    3.2498    0.4045    1.3738 C   0  0  0  0  0  0  0  0  0  0  0  0
    4.0268   -0.6972    1.0519 C   0  0  0  0  0  0  0  0  0  0  0  0
    4.8258   -0.5352   -0.0679 N   0  0  0  0  0  0  0  0  0  0  0  0
    4.6589    0.6639   -0.5792 C   0  0  0  0  0  0  0  0  0  0  0  0
    3.5340    1.6642    0.2436 S   0  0  0  0  0  0  0  0  0  0  0  0
    5.3680    1.1695   -1.7849 C   0  0  0  0  0  0  0  0  0  0  0  0
    4.0721   -2.0020    1.7652 C   0  0  0  0  0  0  0  0  0  0  0  0
   -5.1177    2.5864   -0.7476 C   0  0  0  0  0  0  0  0  0  0  0  0
  1  2  1  0
  2  3  2  0
  3  4  1  0
  4  5  1  0
  5  6  2  0
  5  7  1  0
  7  8  1  6
  8  9  1  0
  9 10  1  0
 10 11  2  0
 11 12  1  0
 12 13  1  0
  7 14  1  0
 14 15  1  0
 15 16  2  0
 15 17  1  0
 17 18  1  0
 18 19  2  0
 19 20  1  0
 20 21  2  0
 21 22  1  0
 21 23  1  0
 19 24  1  0
  3 25  1  0
  6  2  1  0
 13  9  2  0
 22 18  1  0
M  END
$$$$
