
     RDKit          3D

 18 20  0  0  0  0  0  0  0  0999 V2000
   -4.7220    0.6818   -0.6632 C   0  0  0  0  0  0  0  0  0  0  0  0
   -3.2615    0.2448   -0.7542 C   0  0  1  0  0  0  0  0  0  0  0  0
   -2.3166    1.4122   -0.4024 C   0  0  0  0  0  0  0  0  0  0  0  0
   -0.8406    1.0278   -0.5934 C   0  0  0  0  0  0  0  0  0  0  0  0
   -0.5280   -0.3266   -0.0175 C   0  0  0  0  0  0  0  0  0  0  0  0
    0.7886   -0.8652    0.2474 C   0  0  0  0  0  0  0  0  0  0  0  0
    0.6827   -2.1559    0.7449 C   0  0  0  0  0  0  0  0  0  0  0  0
   -0.9336   -2.6858    0.9186 S   0  0  0  0  0  0  0  0  0  0  0  0
   -1.5311   -1.2226    0.3022 C   0  0  0  0  0  0  0  0  0  0  0  0
   -3.0021   -0.9673    0.1663 C   0  0  0  0  0  0  0  0  0  0  0  0
    2.0620   -0.1676   -0.0145 C   0  0  0  0  0  0  0  0  0  0  0  0
    2.1241    0.7125   -0.8641 O   0  0  0  0  0  0  0  0  0  0  0  0
    3.0951   -0.5816    0.7931 N   0  0  0  0  0  0  0  0  0  0  0  0
    4.3925   -0.1381    0.7658 C   0  0  0  0  0  0  0  0  0  0  0  0
    5.2861   -0.5542    1.6374 N   0  0  0  0  0  0  0  0  0  0  0  0
    6.5292    0.0089    1.4228 N   0  0  0  0  0  0  0  0  0  0  0  0
    6.5173    0.8229    0.3897 C   0  0  0  0  0  0  0  0  0  0  0  0
    4.9993    0.9576   -0.3905 S   0  0  0  0  0  0  0  0  0  0  0  0
  2  1  1  1
  2  3  1  0
  3  4  1  0
  4  5  1  0
  5  6  1  0
  6  7  2  0
  7  8  1  0
  8  9  1  0
  9 10  1  0
  6 11  1  0
 11 12  2  0
 11 13  1  0
 13 14  1  0
 14 15  2  0
 15 16  1  0
 16 17  2  0
 17 18  1  0
 10  2  1  0
  9  5  2  0
 18 14  1  0
M  END
$$$$
