
     RDKit          3D

 16 17  0  0  0  0  0  0  0  0999 V2000
    3.2196    0.5731    0.8174 C   0  0  0  0  0  0  0  0  0  0  0  0
    2.2614    0.5543   -0.3409 C   0  0  0  0  0  0  0  0  0  0  0  0
    2.4546    1.4439   -1.4023 C   0  0  0  0  0  0  0  0  0  0  0  0
    1.5909    1.3955   -2.4805 C   0  0  0  0  0  0  0  0  0  0  0  0
    0.5663    0.5308   -2.5845 N   0  0  0  0  0  0  0  0  0  0  0  0
    0.3572   -0.3218   -1.5407 C   0  0  0  0  0  0  0  0  0  0  0  0
    1.1623   -0.3284   -0.3739 C   0  0  0  0  0  0  0  0  0  0  0  0
    1.0424   -1.3192    0.6350 N   0  0  0  0  0  0  0  0  0  0  0  0
   -0.9898   -1.4665   -1.8141 S   0  0  0  0  0  0  0  0  0  0  0  0
   -2.0845   -0.9747   -0.5059 C   0  0  0  0  0  0  0  0  0  0  0  0
   -3.2498   -0.3980   -0.8425 N   0  0  0  0  0  0  0  0  0  0  0  0
   -4.0130   -0.0554    0.2073 C   0  0  0  0  0  0  0  0  0  0  0  0
   -3.6571   -0.2636    1.5258 C   0  0  0  0  0  0  0  0  0  0  0  0
   -2.4455   -0.8743    1.7903 C   0  0  0  0  0  0  0  0  0  0  0  0
   -1.6777   -1.2484    0.7512 N   0  0  0  0  0  0  0  0  0  0  0  0
   -1.9906   -1.1014    2.9526 O   0  0  0  0  0  0  0  0  0  0  0  0
  1  2  1  0
  2  3  2  0
  3  4  1  0
  4  5  2  0
  5  6  1  0
  6  7  2  0
  7  8  1  0
  6  9  1  0
  9 10  1  0
 10 11  2  0
 11 12  1  0
 12 13  2  0
 13 14  1  0
 14 15  2  0
 14 16  1  0
  7  2  1  0
 15 10  1  0
M  CHG  1  16  -1
M  END
$$$$
