
     RDKit          3D

 14 14  0  0  0  0  0  0  0  0999 V2000
    4.0177   -0.9357    1.1329 C   0  0  0  0  0  0  0  0  0  0  0  0
    2.7840   -0.2390    0.6813 C   0  0  0  0  0  0  0  0  0  0  0  0
    1.6502   -0.7839    0.1203 C   0  0  0  0  0  0  0  0  0  0  0  0
    0.6444    0.1947   -0.1953 C   0  0  0  0  0  0  0  0  0  0  0  0
    1.0675    1.4614    0.1869 C   0  0  0  0  0  0  0  0  0  0  0  0
    2.6471    1.4532    0.8437 S   0  0  0  0  0  0  0  0  0  0  0  0
    0.3102    2.7449    0.0881 C   0  0  0  0  0  0  0  0  0  0  0  0
   -0.7037   -0.1131   -0.8344 C   0  0  1  0  0  0  0  0  0  0  0  0
   -0.5720   -1.0777   -2.0197 C   0  0  0  0  0  0  0  0  0  0  0  0
   -1.5508   -0.6867    0.2149 N   0  0  0  0  0  0  0  0  0  0  0  0
   -3.0596   -0.2523    0.0822 S   0  0  0  0  0  0  0  0  0  0  0  0
   -3.3763    1.1331    0.3932 O   0  0  0  0  0  0  0  0  0  0  0  0
   -3.8375   -0.8632   -0.9839 O   0  0  0  0  0  0  0  0  0  0  0  0
   -3.7037   -1.0354    1.4382 N   0  0  0  0  0  0  0  0  0  0  0  0
  1  2  1  0
  2  3  2  0
  3  4  1  0
  4  5  2  0
  5  6  1  0
  5  7  1  0
  4  8  1  0
  8  9  1  6
  8 10  1  0
 10 11  1  0
 11 12  2  0
 11 13  2  0
 11 14  1  0
  6  2  1  0
M  CHG  1  10  -1
M  END
$$$$
