
     RDKit          3D

 24 27  0  0  0  0  0  0  0  0999 V2000
    2.3657    1.6577    0.3922 C   0  0  0  0  0  0  0  0  0  0  0  0
    3.7617    1.6236    0.5002 C   0  0  0  0  0  0  0  0  0  0  0  0
    4.3943    0.5230   -0.0244 C   0  0  0  0  0  0  0  0  0  0  0  0
    3.6958   -0.5153   -0.6358 C   0  0  0  0  0  0  0  0  0  0  0  0
    2.3267   -0.5082   -0.7569 C   0  0  0  0  0  0  0  0  0  0  0  0
    1.6429    0.6071   -0.2370 C   0  0  0  0  0  0  0  0  0  0  0  0
    0.1338    0.6635   -0.3122 C   0  0  0  0  0  0  0  0  0  0  0  0
   -0.4244   -0.1716    0.7327 N   0  0  0  0  0  0  0  0  0  0  0  0
   -1.7770   -0.3642    0.8745 C   0  0  0  0  0  0  0  0  0  0  0  0
   -2.2617   -1.0537    2.1162 C   0  0  0  0  0  0  0  0  0  0  0  0
   -3.5755   -1.2516    2.2760 C   0  0  0  0  0  0  0  0  0  0  0  0
   -4.4562   -0.8059    1.2739 C   0  0  0  0  0  0  0  0  0  0  0  0
   -5.7644   -0.8525    1.1521 N   0  0  0  0  0  0  0  0  0  0  0  0
   -6.0920   -0.2595   -0.0453 N   0  0  0  0  0  0  0  0  0  0  0  0
   -4.9710    0.1347   -0.6252 C   0  0  0  0  0  0  0  0  0  0  0  0
   -3.9043   -0.1884    0.1715 N   0  0  0  0  0  0  0  0  0  0  0  0
   -2.5836    0.0512   -0.0653 N   0  0  0  0  0  0  0  0  0  0  0  0
   -4.8154    0.8199   -1.9167 C   0  0  0  0  0  0  0  0  0  0  0  0
   -4.2142    2.0345   -1.7818 F   0  0  0  0  0  0  0  0  0  0  0  0
   -4.0489    0.1060   -2.7867 F   0  0  0  0  0  0  0  0  0  0  0  0
    4.6198   -1.4674   -1.0506 N   0  0  0  0  0  0  0  0  0  0  0  0
    5.9055   -1.0288   -0.7025 C   0  0  0  0  0  0  0  0  0  0  0  0
    6.9544   -1.6106   -0.9120 O   0  0  0  0  0  0  0  0  0  0  0  0
    5.7481    0.2101   -0.0642 N   0  0  0  0  0  0  0  0  0  0  0  0
  1  2  2  0
  2  3  1  0
  3  4  2  0
  4  5  1  0
  5  6  2  0
  6  7  1  0
  7  8  1  0
  8  9  1  0
  9 10  1  0
 10 11  2  0
 11 12  1  0
 12 13  2  0
 13 14  1  0
 14 15  2  0
 15 16  1  0
 16 17  1  0
 15 18  1  0
 18 19  1  0
 18 20  1  0
  4 21  1  0
 21 22  1  0
 22 23  2  0
 22 24  1  0
  6  1  1  0
 24  3  1  0
 17  9  2  0
 16 12  1  0
M  END
$$$$
