
     RDKit          3D

 34 39  0  0  0  0  0  0  0  0999 V2000
   -2.0056   -3.7158   -1.5056 C   0  0  0  0  0  0  0  0  0  0  0  0
   -2.5759   -4.2117   -0.3378 C   0  0  0  0  0  0  0  0  0  0  0  0
   -2.5869   -3.4297    0.8164 C   0  0  0  0  0  0  0  0  0  0  0  0
   -2.0289   -2.1458    0.8092 C   0  0  0  0  0  0  0  0  0  0  0  0
   -1.4293   -1.6425   -0.3558 C   0  0  0  0  0  0  0  0  0  0  0  0
   -1.4354   -2.4425   -1.5161 C   0  0  0  0  0  0  0  0  0  0  0  0
   -0.7392   -0.2755   -0.3923 C   0  0  1  0  0  0  0  0  0  0  0  0
   -1.7642    0.8798   -0.3612 C   0  0  0  0  0  0  0  0  0  0  0  0
   -1.5972    1.8757   -1.3655 C   0  0  0  0  0  0  0  0  0  0  0  0
   -2.4187    2.9986   -1.4416 C   0  0  0  0  0  0  0  0  0  0  0  0
   -3.4331    3.1472   -0.5175 C   0  0  0  0  0  0  0  0  0  0  0  0
   -3.6265    2.1881    0.4689 C   0  0  0  0  0  0  0  0  0  0  0  0
   -2.8055    1.0430    0.5865 C   0  0  0  0  0  0  0  0  0  0  0  0
   -3.2359    0.0967    1.6876 C   0  0  0  0  0  0  0  0  0  0  0  0
   -2.1115   -1.1713    2.2935 S   0  0  0  0  0  0  0  0  0  0  0  0
   -4.6401    2.3593    1.3339 F   0  0  0  0  0  0  0  0  0  0  0  0
   -4.2345    4.2188   -0.5831 F   0  0  0  0  0  0  0  0  0  0  0  0
    0.3807   -0.1291    0.6056 N   0  0  0  0  0  0  0  0  0  0  0  0
    1.4156   -1.1575    0.4384 C   0  0  2  0  0  0  0  0  0  0  0  0
    2.4239   -1.2856    1.6108 C   0  0  0  0  0  0  0  0  0  0  0  0
    3.3530   -2.3675    1.3543 O   0  0  0  0  0  0  0  0  0  0  0  0
    4.0597   -2.1801    0.1095 C   0  0  0  0  0  0  0  0  0  0  0  0
    3.0852   -2.0450   -1.0747 C   0  0  0  0  0  0  0  0  0  0  0  0
    2.1536   -0.9517   -0.8026 N   0  0  0  0  0  0  0  0  0  0  0  0
    2.5586    0.3276   -1.1853 C   0  0  0  0  0  0  0  0  0  0  0  0
    3.3588    0.4962   -2.1005 O   0  0  0  0  0  0  0  0  0  0  0  0
    1.9710    1.4596   -0.3787 C   0  0  0  0  0  0  0  0  0  0  0  0
    0.9789    1.1516    0.5611 N   0  0  0  0  0  0  0  0  0  0  0  0
    0.5488    2.1021    1.4676 C   0  0  0  0  0  0  0  0  0  0  0  0
    0.9453    3.3780    1.4497 C   0  0  0  0  0  0  0  0  0  0  0  0
    1.9098    3.7697    0.4013 C   0  0  0  0  0  0  0  0  0  0  0  0
    2.2910    4.9314    0.2817 O   0  0  0  0  0  0  0  0  0  0  0  0
    2.4550    2.7136   -0.5109 C   0  0  0  0  0  0  0  0  0  0  0  0
    3.4352    3.1138   -1.3954 O   0  0  0  0  0  0  0  0  0  0  0  0
  1  2  2  0
  2  3  1  0
  3  4  2  0
  4  5  1  0
  5  6  2  0
  5  7  1  0
  7  8  1  0
  8  9  2  0
  9 10  1  0
 10 11  2  0
 11 12  1  0
 12 13  2  0
 13 14  1  0
 14 15  1  0
 12 16  1  0
 11 17  1  0
  7 18  1  1
 18 19  1  0
 19 20  1  1
 20 21  1  0
 21 22  1  0
 22 23  1  0
 23 24  1  0
 24 25  1  0
 25 26  2  0
 25 27  1  0
 27 28  1  0
 28 29  1  0
 29 30  2  0
 30 31  1  0
 31 32  2  0
 31 33  1  0
 33 34  1  0
  6  1  1  0
 15  4  1  0
 13  8  1  0
 28 18  1  0
 24 19  1  0
 33 27  2  0
M  END
$$$$
