
 OpenBabel09192416293D
Schrodinger Suite 2024-1.
 60 63  0  0  1  0  0  0  0  0999 V2000
   -3.4130    5.1140   14.1060 C   0  0  0  0  0  0  0  0  0  0  0  0
   -3.3280    3.6380   14.5240 C   0  0  0  0  0  0  0  0  0  0  0  0
   -4.7130    3.0030   14.6470 C   0  0  2  0  0  0  0  0  0  0  0  0
   -4.6110    1.6310   14.9900 O   0  0  0  0  0  0  0  0  0  0  0  0
   -5.3880    3.0790   13.2820 C   0  0  0  0  0  0  0  0  0  0  0  0
   -5.4910    4.5140   12.7110 C   0  0  2  0  0  0  0  0  0  0  0  0
   -5.8970    4.3350   11.2360 C   0  0  0  0  0  0  0  0  0  0  0  0
   -5.9840    5.6580   10.5070 C   0  0  0  0  0  0  0  0  0  0  0  0
   -4.6090    6.3420   10.4860 C   0  0  2  0  0  0  0  0  0  0  0  0
   -3.8110    6.1910   11.8090 C   0  0  3  0  0  0  0  0  0  0  0  0
   -4.1860    5.3230   12.7960 C   0  0  3  0  0  0  0  0  0  0  0  0
   -2.5330    7.0500   11.8810 C   0  0  0  0  0  0  0  0  0  0  0  0
   -2.6630    8.4730   11.2910 C   0  0  0  0  0  0  0  0  0  0  0  0
   -3.3080    8.3940    9.9100 C   0  0  1  0  0  0  0  0  0  0  0  0
   -4.7230    7.8080    9.9890 C   0  0  1  0  0  0  0  0  0  0  0  0
   -5.1770    7.9580    8.5240 C   0  0  0  0  0  0  0  0  0  0  0  0
   -4.5210    9.2590    8.0830 C   0  0  3  0  0  0  0  0  0  0  0  0
   -3.4180    9.6630    9.0540 C   0  0  0  0  0  0  0  0  0  0  0  0
   -5.6590    8.6560   10.8960 C   0  0  0  0  0  0  0  0  0  0  0  0
   -6.5410    5.3030   13.5160 C   0  0  0  0  0  0  0  0  0  0  0  0
   -4.8420    9.8910    7.0790 O   0  0  0  0  0  0  0  0  0  0  0  0
   -5.4630    1.1660   16.3700 S   0  0  0  0  0  0  0  0  0  0  0  0
   -6.8560    1.5710   16.1480 O   0  0  0  0  0  0  0  0  0  0  0  0
   -4.7490    1.8010   17.4800 O   0  0  0  0  0  0  0  0  0  0  0  0
   -5.3440   -0.4180   16.4470 N   0  0  0  0  0  0  0  0  0  0  0  0
   -2.4194    5.4903   13.9793 H   0  0  0  0  0  0  0  0  0  0  0  0
   -3.9422    5.6349   14.8764 H   0  0  0  0  0  0  0  0  0  0  0  0
   -2.8321    3.5738   15.4700 H   0  0  0  0  0  0  0  0  0  0  0  0
   -2.7850    3.1089   13.7689 H   0  0  0  0  0  0  0  0  0  0  0  0
   -5.2648    3.5209   15.4035 H   0  0  0  0  0  0  0  0  0  0  0  0
   -6.3771    2.6810   13.3729 H   0  0  0  0  0  0  0  0  0  0  0  0
   -4.7796    2.5182   12.6036 H   0  0  0  0  0  0  0  0  0  0  0  0
   -6.8527    3.8555   11.1966 H   0  0  0  0  0  0  0  0  0  0  0  0
   -5.1463    3.7423   10.7564 H   0  0  0  0  0  0  0  0  0  0  0  0
   -6.6866    6.2916   11.0067 H   0  0  0  0  0  0  0  0  0  0  0  0
   -6.3026    5.4825    9.5007 H   0  0  0  0  0  0  0  0  0  0  0  0
   -4.0129    5.8151    9.7705 H   0  0  0  0  0  0  0  0  0  0  0  0
   -4.2697    5.9714   12.7504 H   0  0  0  0  0  0  0  0  0  0  0  0
   -3.4796    5.5940   12.0394 H   0  0  0  0  0  0  0  0  0  0  0  0
   -1.7600    6.5390   11.3459 H   0  0  0  0  0  0  0  0  0  0  0  0
   -2.3193    7.1781   12.9216 H   0  0  0  0  0  0  0  0  0  0  0  0
   -1.6919    8.9142   11.2064 H   0  0  0  0  0  0  0  0  0  0  0  0
   -3.2719    9.0721   11.9354 H   0  0  0  0  0  0  0  0  0  0  0  0
   -2.5931    7.7731    9.4116 H   0  0  0  0  0  0  0  0  0  0  0  0
   -6.2429    8.0252    8.4584 H   0  0  0  0  0  0  0  0  0  0  0  0
   -4.9016    7.1234    7.9137 H   0  0  0  0  0  0  0  0  0  0  0  0
   -4.7682    9.8474    7.2242 H   0  0  0  0  0  0  0  0  0  0  0  0
   -2.5017    9.8739    8.5432 H   0  0  0  0  0  0  0  0  0  0  0  0
   -3.6216   10.5549    9.6089 H   0  0  0  0  0  0  0  0  0  0  0  0
   -5.3515    8.5582   11.9162 H   0  0  0  0  0  0  0  0  0  0  0  0
   -6.6660    8.3095   10.7922 H   0  0  0  0  0  0  0  0  0  0  0  0
   -5.6036    9.6838   10.6037 H   0  0  0  0  0  0  0  0  0  0  0  0
   -7.4753    4.7821   13.4905 H   0  0  0  0  0  0  0  0  0  0  0  0
   -6.6630    6.2754   13.0864 H   0  0  0  0  0  0  0  0  0  0  0  0
   -6.2141    5.3996   14.5302 H   0  0  0  0  0  0  0  0  0  0  0  0
   -5.4855    9.3777    6.5658 H   0  0  0  0  0  0  0  0  0  0  0  0
   -6.9083    2.5386   16.1040 H   0  0  0  0  0  0  0  0  0  0  0  0
   -4.8360    2.7646   17.4113 H   0  0  0  0  0  0  0  0  0  0  0  0
   -5.8484   -0.8353   15.6648 H   0  0  0  0  0  0  0  0  0  0  0  0
   -5.7458   -0.7469   17.3249 H   0  0  0  0  0  0  0  0  0  0  0  0
  1  2  1  0  0  0  0
  1 11  1  0  0  0  0
  1 26  1  0  0  0  0
  1 27  1  0  0  0  0
  2  3  1  0  0  0  0
  2 28  1  0  0  0  0
  2 29  1  0  0  0  0
  3  4  1  0  0  0  0
  3  5  1  0  0  0  0
  3 30  1  1  0  0  0
  4 22  1  0  0  0  0
  5  6  1  0  0  0  0
  5 31  1  0  0  0  0
  5 32  1  0  0  0  0
  6  7  1  0  0  0  0
  6 11  1  0  0  0  0
  6 20  1  1  0  0  0
  7  8  1  0  0  0  0
  7 33  1  0  0  0  0
  7 34  1  0  0  0  0
  8  9  1  0  0  0  0
  8 35  1  0  0  0  0
  8 36  1  0  0  0  0
  9 10  1  0  0  0  0
  9 15  1  0  0  0  0
  9 37  1  6  0  0  0
 10 11  1  0  0  0  0
 10 12  1  0  0  0  0
 10 38  1  0  0  0  0
 11 39  1  0  0  0  0
 12 13  1  0  0  0  0
 12 40  1  0  0  0  0
 12 41  1  0  0  0  0
 13 14  1  0  0  0  0
 13 42  1  0  0  0  0
 13 43  1  0  0  0  0
 14 15  1  0  0  0  0
 14 18  1  0  0  0  0
 14 44  1  6  0  0  0
 15 16  1  0  0  0  0
 15 19  1  1  0  0  0
 16 17  1  0  0  0  0
 16 45  1  0  0  0  0
 16 46  1  0  0  0  0
 17 18  1  0  0  0  0
 17 21  1  0  0  0  0
 17 47  1  0  0  0  0
 18 48  1  0  0  0  0
 18 49  1  0  0  0  0
 19 50  1  0  0  0  0
 19 51  1  0  0  0  0
 19 52  1  0  0  0  0
 20 53  1  0  0  0  0
 20 54  1  0  0  0  0
 20 55  1  0  0  0  0
 21 56  1  0  0  0  0
 22 23  1  0  0  0  0
 22 24  1  0  0  0  0
 22 25  1  0  0  0  0
 23 57  1  0  0  0  0
 24 58  1  0  0  0  0
 25 59  1  0  0  0  0
 25 60  1  0  0  0  0
M  END
>  <s_pdb_PDB_format_version>
3.0

$$$$
