
 OpenBabel09192416393D
Schrodinger Suite 2024-1.
 29 30  0  0  1  0  0  0  0  0999 V2000
  -25.2280    7.5620  -26.8240 C   0  0  0  0  0  0  0  0  0  0  0  0
  -25.0470   10.3590  -33.1440 C   0  0  0  0  0  0  0  0  0  0  0  0
  -25.2320    6.6940  -25.7130 C   0  0  0  0  0  0  0  0  0  0  0  0
  -24.2990    6.3670  -33.6190 O   0  0  0  0  0  0  0  0  0  0  0  0
  -25.0620    6.7610  -32.7030 C   0  0  0  0  0  0  0  0  0  0  0  0
  -25.7270    5.9590  -32.0180 O   0  0  0  0  0  0  0  0  0  0  0  0
  -25.2040    8.2440  -32.5140 C   0  0  0  0  0  0  0  0  0  0  0  0
  -25.7010    8.9090  -31.3190 C   0  0  0  0  0  0  0  0  0  0  0  0
  -25.9210    8.1770  -30.0030 C   0  0  0  0  0  0  0  0  0  0  0  0
  -24.5940    8.0810  -29.2350 C   0  0  0  0  0  0  0  0  0  0  0  0
  -24.6390    7.1530  -28.0390 C   0  0  0  0  0  0  0  0  0  0  0  0
  -24.0490    5.8770  -28.1300 C   0  0  0  0  0  0  0  0  0  0  0  0
  -24.0520    5.0130  -27.0210 C   0  0  0  0  0  0  0  0  0  0  0  0
  -24.6450    5.4170  -25.8110 C   0  0  0  0  0  0  0  0  0  0  0  0
  -25.7550   10.6520  -31.5620 S   0  0  0  0  0  0  0  0  0  0  0  0
  -24.6790   11.3680  -34.0250 N   0  0  0  0  0  0  0  0  0  0  0  0
  -24.7930    9.0940  -33.4580 N   0  0  0  0  0  0  0  0  0  0  0  0
  -25.6565    8.4978  -26.7484 H   0  0  0  0  0  0  0  0  0  0  0  0
  -25.6658    6.9947  -24.8262 H   0  0  0  0  0  0  0  0  0  0  0  0
  -26.2898    6.2767  -31.3396 H   0  0  0  0  0  0  0  0  0  0  0  0
  -26.2891    7.1921  -30.2012 H   0  0  0  0  0  0  0  0  0  0  0  0
  -26.6333    8.7153  -29.4132 H   0  0  0  0  0  0  0  0  0  0  0  0
  -24.3328    9.0601  -28.8913 H   0  0  0  0  0  0  0  0  0  0  0  0
  -23.8727    7.6759  -29.9136 H   0  0  0  0  0  0  0  0  0  0  0  0
  -23.6125    5.5750  -29.0150 H   0  0  0  0  0  0  0  0  0  0  0  0
  -23.6179    4.0796  -27.0948 H   0  0  0  0  0  0  0  0  0  0  0  0
  -24.6500    4.7807  -24.9986 H   0  0  0  0  0  0  0  0  0  0  0  0
  -24.8632   12.3087  -33.8007 H   0  0  0  0  0  0  0  0  0  0  0  0
  -24.2339   11.1424  -34.8737 H   0  0  0  0  0  0  0  0  0  0  0  0
  1  3  1  0  0  0  0
  1 11  2  0  0  0  0
  1 18  1  0  0  0  0
  2 15  1  0  0  0  0
  2 16  1  0  0  0  0
  2 17  2  0  0  0  0
  3 14  2  0  0  0  0
  3 19  1  0  0  0  0
  4  5  2  0  0  0  0
  5  6  1  0  0  0  0
  5  7  1  0  0  0  0
  6 20  1  0  0  0  0
  7  8  2  0  0  0  0
  7 17  1  0  0  0  0
  8  9  1  0  0  0  0
  8 15  1  0  0  0  0
  9 10  1  0  0  0  0
  9 21  1  0  0  0  0
  9 22  1  0  0  0  0
 10 11  1  0  0  0  0
 10 23  1  0  0  0  0
 10 24  1  0  0  0  0
 11 12  1  0  0  0  0
 12 13  2  0  0  0  0
 12 25  1  0  0  0  0
 13 14  1  0  0  0  0
 13 26  1  0  0  0  0
 14 27  1  0  0  0  0
 16 28  1  0  0  0  0
 16 29  1  0  0  0  0
M  END
>  <s_pdb_PDB_format_version>
3.0

$$$$
