
 OpenBabel09192415413D
Schrodinger Suite 2024-1.
 60 62  0  0  1  0  0  0  0  0999 V2000
   14.3300   37.1040  -70.5560 N   0  0  0  0  0  0  0  0  0  0  0  0
   15.4120   37.9970  -70.6650 C   0  0  0  0  0  0  0  0  0  0  0  0
   15.4150   39.0980  -69.8130 N   0  0  0  0  0  0  0  0  0  0  0  0
   14.4440   39.3900  -68.8550 C   0  0  0  0  0  0  0  0  0  0  0  0
   13.3430   38.4360  -68.8020 C   0  0  0  0  0  0  0  0  0  0  0  0
   13.3270   37.3650  -69.6290 C   0  0  0  0  0  0  0  0  0  0  0  0
   16.3290   37.8350  -71.4640 O   0  0  0  0  0  0  0  0  0  0  0  0
   14.5620   40.3830  -68.1390 O   0  0  0  0  0  0  0  0  0  0  0  0
   14.3150   35.8680  -71.4270 C   0  0  1  0  0  0  0  0  0  0  0  0
   15.0030   34.7060  -70.6940 C   0  0  2  0  0  0  0  0  0  0  0  0
   15.6570   33.8320  -71.5970 O   0  0  0  0  0  0  0  0  0  0  0  0
   13.8190   34.0280  -70.0320 C   0  0  1  0  0  0  0  0  0  0  0  0
   12.7260   34.2180  -71.0940 C   0  0  2  0  0  0  0  0  0  0  0  0
   12.9870   35.5030  -71.6470 O   0  0  0  0  0  0  0  0  0  0  0  0
   14.1000   32.6840  -69.7020 O   0  0  0  0  0  0  0  0  0  0  0  0
   11.2540   34.1720  -70.6470 C   0  0  0  0  0  0  0  0  0  0  0  0
   11.0670   34.4220  -69.2630 O   0  0  0  0  0  0  0  0  0  0  0  0
   10.8730   33.1820  -68.2320 P   0  0  2  0  0  0  0  0  0  0  0  0
   11.1560   33.6010  -66.8340 O   0  0  0  0  0  0  0  0  0  0  0  0
   11.6480   32.0140  -68.7100 O   0  0  0  0  0  0  0  0  0  0  0  0
    9.2950   32.9220  -68.4780 O   0  0  0  0  0  0  0  0  0  0  0  0
    8.4710   31.5490  -68.2280 P   0  0  2  0  0  0  0  0  0  0  0  0
    8.2590   31.3110  -66.7770 O   0  0  0  0  0  0  0  0  0  0  0  0
    9.1030   30.4300  -68.9700 O   0  0  0  0  0  0  0  0  0  0  0  0
    7.0660   31.9220  -68.9620 O   0  0  0  0  0  0  0  0  0  0  0  0
    7.1300   32.4990  -70.2480 C   0  0  2  0  0  0  0  0  0  0  0  0
    7.0490   34.0350  -70.1990 C   0  0  1  0  0  0  0  0  0  0  0  0
    7.2100   34.6570  -71.5990 C   0  0  2  0  0  0  0  0  0  0  0  0
    7.6170   33.5770  -72.6010 C   0  0  1  0  0  0  0  0  0  0  0  0
    6.5670   32.4270  -72.5670 C   0  0  1  0  0  0  0  0  0  0  0  0
    6.9320   31.2080  -73.4260 C   0  0  0  0  0  0  0  0  0  0  0  0
    5.8000   34.4070  -69.6550 O   0  0  0  0  0  0  0  0  0  0  0  0
    8.2530   35.6040  -71.5830 O   0  0  0  0  0  0  0  0  0  0  0  0
    7.7820   34.1720  -73.8520 O   0  0  0  0  0  0  0  0  0  0  0  0
    6.2370   31.9890  -71.2330 O   0  0  0  0  0  0  0  0  0  0  0  0
    8.1850   30.6690  -73.0640 O   0  0  0  0  0  0  0  0  0  0  0  0
   16.1689   39.7259  -69.8937 H   0  0  0  0  0  0  0  0  0  0  0  0
   12.5722   38.5781  -68.1307 H   0  0  0  0  0  0  0  0  0  0  0  0
   12.5317   36.7101  -69.5688 H   0  0  0  0  0  0  0  0  0  0  0  0
   14.8226   36.0739  -72.3461 H   0  0  0  0  0  0  0  0  0  0  0  0
   15.7707   35.0141  -70.0153 H   0  0  0  0  0  0  0  0  0  0  0  0
   15.0191   33.5066  -72.2513 H   0  0  0  0  0  0  0  0  0  0  0  0
   13.5346   34.4322  -69.0830 H   0  0  0  0  0  0  0  0  0  0  0  0
   12.7945   33.3808  -71.7569 H   0  0  0  0  0  0  0  0  0  0  0  0
   14.3746   32.2057  -70.5000 H   0  0  0  0  0  0  0  0  0  0  0  0
   10.8641   33.2008  -70.8699 H   0  0  0  0  0  0  0  0  0  0  0  0
   10.7437   34.9499  -71.1756 H   0  0  0  0  0  0  0  0  0  0  0  0
   12.5937   32.1710  -68.5620 H   0  0  0  0  0  0  0  0  0  0  0  0
    9.9428   30.1942  -68.5457 H   0  0  0  0  0  0  0  0  0  0  0  0
    8.0980   32.1906  -70.5838 H   0  0  0  0  0  0  0  0  0  0  0  0
    7.8487   34.3988  -69.5882 H   0  0  0  0  0  0  0  0  0  0  0  0
    6.2794   35.1091  -71.8720 H   0  0  0  0  0  0  0  0  0  0  0  0
    8.5548   33.1266  -72.3508 H   0  0  0  0  0  0  0  0  0  0  0  0
    5.7019   32.8821  -73.0021 H   0  0  0  0  0  0  0  0  0  0  0  0
    6.9666   31.5058  -74.4531 H   0  0  0  0  0  0  0  0  0  0  0  0
    6.1879   30.4553  -73.2691 H   0  0  0  0  0  0  0  0  0  0  0  0
    5.0877   34.0695  -70.2204 H   0  0  0  0  0  0  0  0  0  0  0  0
    9.0823   35.1674  -71.3330 H   0  0  0  0  0  0  0  0  0  0  0  0
    6.9517   34.5953  -74.1207 H   0  0  0  0  0  0  0  0  0  0  0  0
    8.8754   31.3368  -73.1990 H   0  0  0  0  0  0  0  0  0  0  0  0
  1  2  1  0  0  0  0
  1  6  1  0  0  0  0
  1  9  1  0  0  0  0
  2  3  1  0  0  0  0
  2  7  2  0  0  0  0
  3  4  1  0  0  0  0
  3 37  1  0  0  0  0
  4  5  1  0  0  0  0
  4  8  2  0  0  0  0
  5  6  2  0  0  0  0
  5 38  1  0  0  0  0
  6 39  1  0  0  0  0
  9 10  1  0  0  0  0
  9 14  1  0  0  0  0
  9 40  1  6  0  0  0
 10 11  1  0  0  0  0
 10 12  1  0  0  0  0
 10 41  1  1  0  0  0
 11 42  1  0  0  0  0
 12 13  1  0  0  0  0
 12 15  1  0  0  0  0
 12 43  1  1  0  0  0
 13 14  1  0  0  0  0
 13 16  1  0  0  0  0
 13 44  1  6  0  0  0
 15 45  1  0  0  0  0
 16 17  1  0  0  0  0
 16 46  1  0  0  0  0
 16 47  1  0  0  0  0
 17 18  1  0  0  0  0
 18 19  2  1  0  0  0
 18 20  1  0  0  0  0
 18 21  1  0  0  0  0
 20 48  1  0  0  0  0
 21 22  1  0  0  0  0
 22 23  2  1  0  0  0
 22 24  1  0  0  0  0
 22 25  1  0  0  0  0
 24 49  1  0  0  0  0
 25 26  1  0  0  0  0
 26 27  1  0  0  0  0
 26 35  1  0  0  0  0
 26 50  1  6  0  0  0
 27 28  1  0  0  0  0
 27 32  1  0  0  0  0
 27 51  1  1  0  0  0
 28 29  1  0  0  0  0
 28 33  1  0  0  0  0
 28 52  1  6  0  0  0
 29 30  1  0  0  0  0
 29 34  1  0  0  0  0
 29 53  1  1  0  0  0
 30 31  1  0  0  0  0
 30 35  1  0  0  0  0
 30 54  1  6  0  0  0
 31 36  1  0  0  0  0
 31 55  1  0  0  0  0
 31 56  1  0  0  0  0
 32 57  1  0  0  0  0
 33 58  1  0  0  0  0
 34 59  1  0  0  0  0
 36 60  1  0  0  0  0
M  END
>  <s_pdb_PDB_format_version>
3.0

$$$$
