
 OpenBabel09192415543D
Schrodinger Suite 2024-1.
 32 32  0  0  1  0  0  0  0  0999 V2000
   -2.4410    7.7550   13.6880 N   0  0  0  0  0  0  0  0  0  0  0  0
   -1.8900    9.8310   11.8990 N   0  0  0  0  0  0  0  0  0  0  0  0
   -1.3480    9.9370   13.2660 C   0  0  0  0  0  0  0  0  0  0  0  0
   -1.6830    8.7500   14.1790 C   0  0  0  0  0  0  0  0  0  0  0  0
   -1.2620    8.7520   15.3360 O   0  0  0  0  0  0  0  0  0  0  0  0
   -2.8940    6.6150   14.4710 C   0  0  0  0  0  0  0  0  0  0  0  0
   -3.9260    5.7860   13.6960 C   0  0  0  0  0  0  0  0  0  0  0  0
   -4.4730    4.6340   14.5200 C   0  0  0  0  0  0  0  0  0  0  0  0
   -3.6080    3.6240   14.9920 C   0  0  0  0  0  0  0  0  0  0  0  0
   -4.1200    2.5540   15.7460 C   0  0  0  0  0  0  0  0  0  0  0  0
   -5.5010    2.4730   16.0070 C   0  0  0  0  0  0  0  0  0  0  0  0
   -6.1410    1.0390   16.8660 S   0  0  0  0  0  0  0  0  0  0  0  0
   -5.3870   -0.1980   16.0830 N   0  0  0  0  0  0  0  0  0  0  0  0
   -5.6420    1.0780   18.2470 O   0  0  0  0  0  0  0  0  0  0  0  0
   -7.5820    0.9190   16.6090 O   0  0  0  0  0  0  0  0  0  0  0  0
   -6.3680    3.4910   15.5700 C   0  0  0  0  0  0  0  0  0  0  0  0
   -5.8510    4.5680   14.8220 C   0  0  0  0  0  0  0  0  0  0  0  0
   -2.7060    7.8000   12.7409 H   0  0  0  0  0  0  0  0  0  0  0  0
   -1.6225   10.6561   11.3623 H   0  0  0  0  0  0  0  0  0  0  0  0
   -2.9072    9.7674   11.9405 H   0  0  0  0  0  0  0  0  0  0  0  0
   -1.7432   10.8247   13.7140 H   0  0  0  0  0  0  0  0  0  0  0  0
   -0.2825    9.9546   13.1696 H   0  0  0  0  0  0  0  0  0  0  0  0
   -3.3396    6.9687   15.3772 H   0  0  0  0  0  0  0  0  0  0  0  0
   -2.0499    5.9928   14.6840 H   0  0  0  0  0  0  0  0  0  0  0  0
   -3.4605    5.3905   12.8174 H   0  0  0  0  0  0  0  0  0  0  0  0
   -4.7441    6.4294   13.4477 H   0  0  0  0  0  0  0  0  0  0  0  0
   -2.5984    3.6710   14.7834 H   0  0  0  0  0  0  0  0  0  0  0  0
   -3.4832    1.8273   16.1085 H   0  0  0  0  0  0  0  0  0  0  0  0
   -4.3815   -0.1398   16.2443 H   0  0  0  0  0  0  0  0  0  0  0  0
   -5.5753   -0.1322   15.0827 H   0  0  0  0  0  0  0  0  0  0  0  0
   -7.3743    3.4496   15.7952 H   0  0  0  0  0  0  0  0  0  0  0  0
   -6.4839    5.3136   14.4927 H   0  0  0  0  0  0  0  0  0  0  0  0
  1  4  1  0  0  0  0
  1  6  1  0  0  0  0
  1 18  1  0  0  0  0
  2  3  1  0  0  0  0
  2 19  1  0  0  0  0
  2 20  1  0  0  0  0
  3  4  1  0  0  0  0
  3 21  1  0  0  0  0
  3 22  1  0  0  0  0
  4  5  2  0  0  0  0
  6  7  1  0  0  0  0
  6 23  1  0  0  0  0
  6 24  1  0  0  0  0
  7  8  1  0  0  0  0
  7 25  1  0  0  0  0
  7 26  1  0  0  0  0
  8  9  1  0  0  0  0
  8 17  2  0  0  0  0
  9 10  2  0  0  0  0
  9 27  1  0  0  0  0
 10 11  1  0  0  0  0
 10 28  1  0  0  0  0
 11 12  1  0  0  0  0
 11 16  2  0  0  0  0
 12 13  1  0  0  0  0
 12 14  2  0  0  0  0
 12 15  2  0  0  0  0
 13 29  1  0  0  0  0
 13 30  1  0  0  0  0
 16 17  1  0  0  0  0
 16 31  1  0  0  0  0
 17 32  1  0  0  0  0
M  END
>  <s_pdb_PDB_format_version>
3.0

$$$$
