
 OpenBabel09192417533D
Schrodinger Suite 2024-1.
 35 34  0  0  1  0  0  0  0  0999 V2000
   17.8650  -19.5560  -56.5090 C   0  0  0  0  0  0  0  0  0  0  0  0
   16.7970  -19.2590  -57.5950 C   0  0  1  0  0  0  0  0  0  0  0  0
   15.9090  -20.5060  -57.9570 C   0  0  1  0  0  0  0  0  0  0  0  0
   15.1030  -21.1760  -56.8030 C   0  0  1  0  0  0  0  0  0  0  0  0
   14.0180  -22.1590  -57.2830 C   0  0  0  0  0  0  0  0  0  0  0  0
   15.9410  -18.0210  -57.2470 C   0  0  0  0  0  0  0  0  0  0  0  0
   18.6830  -18.4220  -56.2300 O   0  0  0  0  0  0  0  0  0  0  0  0
   17.5380  -18.9610  -58.7700 O   0  0  0  0  0  0  0  0  0  0  0  0
   15.0270  -20.1470  -59.0060 O   0  0  0  0  0  0  0  0  0  0  0  0
   16.0080  -21.9690  -56.0720 O   0  0  0  0  0  0  0  0  0  0  0  0
   13.3600  -22.7400  -56.1630 O   0  0  0  0  0  0  0  0  0  0  0  0
   15.4940  -17.3510  -58.2070 O   0  0  0  0  0  0  0  0  0  0  0  0
   15.7210  -17.7630  -56.0420 O   0  0  0  0  0  0  0  0  0  0  0  0
   19.9370  -18.6930  -55.1950 P   0  0  0  0  0  0  0  0  0  0  0  0
   13.2670  -24.3730  -56.1680 P   0  0  0  0  0  0  0  0  0  0  0  0
   20.6130  -19.9720  -55.6480 O   0  0  0  0  0  0  0  0  0  0  0  0
   19.3220  -18.8090  -53.8150 O   0  0  0  0  0  0  0  0  0  0  0  0
   20.8470  -17.4930  -55.3180 O   0  0  0  0  0  0  0  0  0  0  0  0
   12.3280  -24.7330  -57.2990 O   0  0  0  0  0  0  0  0  0  0  0  0
   12.7020  -24.7770  -54.8240 O   0  0  0  0  0  0  0  0  0  0  0  0
   14.6750  -24.8870  -56.3810 O   0  0  0  0  0  0  0  0  0  0  0  0
   18.4895  -20.3552  -56.8500 H   0  0  0  0  0  0  0  0  0  0  0  0
   17.3513  -19.8187  -55.6079 H   0  0  0  0  0  0  0  0  0  0  0  0
   16.6132  -21.2608  -58.2386 H   0  0  0  0  0  0  0  0  0  0  0  0
   14.6353  -20.3840  -56.2563 H   0  0  0  0  0  0  0  0  0  0  0  0
   14.4728  -22.9316  -57.8672 H   0  0  0  0  0  0  0  0  0  0  0  0
   13.3018  -21.6302  -57.8766 H   0  0  0  0  0  0  0  0  0  0  0  0
   18.0852  -19.7252  -59.0097 H   0  0  0  0  0  0  0  0  0  0  0  0
   14.4147  -19.4626  -58.6936 H   0  0  0  0  0  0  0  0  0  0  0  0
   16.3772  -22.6547  -56.6502 H   0  0  0  0  0  0  0  0  0  0  0  0
   16.0869  -18.3065  -55.3721 H   0  0  0  0  0  0  0  0  0  0  0  0
   18.7477  -19.5900  -53.7816 H   0  0  0  0  0  0  0  0  0  0  0  0
   21.2171  -17.4583  -56.2140 H   0  0  0  0  0  0  0  0  0  0  0  0
   11.8021  -24.4266  -54.7330 H   0  0  0  0  0  0  0  0  0  0  0  0
   14.9940  -24.6044  -57.2523 H   0  0  0  0  0  0  0  0  0  0  0  0
  1  2  1  0  0  0  0
  1  7  1  0  0  0  0
  1 22  1  0  0  0  0
  1 23  1  0  0  0  0
  2  3  1  0  0  0  0
  2  6  1  1  0  0  0
  2  8  1  0  0  0  0
  3  4  1  0  0  0  0
  3  9  1  0  0  0  0
  3 24  1  6  0  0  0
  4  5  1  0  0  0  0
  4 10  1  0  0  0  0
  4 25  1  1  0  0  0
  5 11  1  0  0  0  0
  5 26  1  0  0  0  0
  5 27  1  0  0  0  0
  6 12  2  0  0  0  0
  6 13  1  0  0  0  0
  7 14  1  0  0  0  0
  8 28  1  0  0  0  0
  9 29  1  0  0  0  0
 10 30  1  0  0  0  0
 11 15  1  0  0  0  0
 13 31  1  0  0  0  0
 14 16  2  0  0  0  0
 14 17  1  0  0  0  0
 14 18  1  0  0  0  0
 15 19  2  0  0  0  0
 15 20  1  0  0  0  0
 15 21  1  0  0  0  0
 17 32  1  0  0  0  0
 18 33  1  0  0  0  0
 20 34  1  0  0  0  0
 21 35  1  0  0  0  0
M  END
>  <s_pdb_PDB_format_version>
3.0

$$$$
