
 OpenBabel09192420223D
Schrodinger Suite 2024-1.
 53 56  0  0  1  0  0  0  0  0999 V2000
    2.4550   -2.8030   83.0910 C   0  0  0  0  0  0  0  0  0  0  0  0
    0.3660   -1.5810   84.5440 C   0  0  0  0  0  0  0  0  0  0  0  0
    1.1090   -3.1330   82.7810 C   0  0  0  0  0  0  0  0  0  0  0  0
   -0.3360   -0.0110   86.3520 C   0  0  0  0  0  0  0  0  0  0  0  0
   -5.7530   -1.8540   85.0030 C   0  0  0  0  0  0  0  0  0  0  0  0
   -6.3750   -3.6780   86.4920 C   0  0  0  0  0  0  0  0  0  0  0  0
    6.5360   -5.7690   82.0940 C   0  0  0  0  0  0  0  0  0  0  0  0
    6.4570   -6.1760   83.5680 C   0  0  0  0  0  0  0  0  0  0  0  0
    5.0050   -6.4810   83.9380 C   0  0  0  0  0  0  0  0  0  0  0  0
    4.0930   -5.2860   83.6790 C   0  0  0  0  0  0  0  0  0  0  0  0
    4.4580   -4.3800   82.5440 C   0  0  0  0  0  0  0  0  0  0  0  0
    5.5820   -4.6250   81.7560 C   0  0  0  0  0  0  0  0  0  0  0  0
    3.5800   -3.2090   82.2170 C   0  0  0  0  0  0  0  0  0  0  0  0
    2.7490   -1.9420   84.1610 C   0  0  0  0  0  0  0  0  0  0  0  0
    1.7160   -1.3500   84.8910 C   0  0  0  0  0  0  0  0  0  0  0  0
    0.0530   -2.4640   83.4840 C   0  0  0  0  0  0  0  0  0  0  0  0
   -1.4020   -2.5640   83.0870 C   0  0  0  0  0  0  0  0  0  0  0  0
   -1.9960   -1.0420   84.8780 C   0  0  0  0  0  0  0  0  0  0  0  0
    0.8470   -4.1710   81.6850 C   0  0  0  0  0  0  0  0  0  0  0  0
   -4.6510   -2.5980   84.5350 C   0  0  0  0  0  0  0  0  0  0  0  0
   -6.6130   -2.3890   85.9790 C   0  0  0  0  0  0  0  0  0  0  0  0
   -5.2740   -4.4280   86.0310 C   0  0  0  0  0  0  0  0  0  0  0  0
   -4.4110   -3.8880   85.0550 C   0  0  0  0  0  0  0  0  0  0  0  0
   -3.7450   -1.9920   83.4700 C   0  0  0  0  0  0  0  0  0  0  0  0
   -7.2090   -4.1930   87.4270 F   0  0  0  0  0  0  0  0  0  0  0  0
   -0.6890   -0.9130   85.2400 N   0  0  0  0  0  0  0  0  0  0  0  0
   -2.3110   -1.8920   83.8490 N   0  0  0  0  0  0  0  0  0  0  0  0
    6.0030   -4.0400   80.7340 O   0  0  0  0  0  0  0  0  0  0  0  0
    3.0840   -5.1980   84.3760 O   0  0  0  0  0  0  0  0  0  0  0  0
   -1.7350   -3.1910   82.0810 O   0  0  0  0  0  0  0  0  0  0  0  0
   -2.8740   -0.3900   85.4500 O   0  0  0  0  0  0  0  0  0  0  0  0
    3.7850   -2.5450   81.2020 O   0  0  0  0  0  0  0  0  0  0  0  0
    0.7232   -0.0283   86.5028 H   0  0  0  0  0  0  0  0  0  0  0  0
   -0.8287   -0.3355   87.2446 H   0  0  0  0  0  0  0  0  0  0  0  0
   -0.6463    0.9853   86.1154 H   0  0  0  0  0  0  0  0  0  0  0  0
   -5.9302   -0.9095   84.6267 H   0  0  0  0  0  0  0  0  0  0  0  0
    6.2857   -6.6156   81.4895 H   0  0  0  0  0  0  0  0  0  0  0  0
    7.5328   -5.4315   81.9008 H   0  0  0  0  0  0  0  0  0  0  0  0
    6.8196   -5.3756   84.1785 H   0  0  0  0  0  0  0  0  0  0  0  0
    7.0557   -7.0481   83.7287 H   0  0  0  0  0  0  0  0  0  0  0  0
    4.9578   -6.7344   84.9765 H   0  0  0  0  0  0  0  0  0  0  0  0
    4.6697   -7.2943   83.3289 H   0  0  0  0  0  0  0  0  0  0  0  0
    3.7315   -1.7462   84.4086 H   0  0  0  0  0  0  0  0  0  0  0  0
    1.9408   -0.7383   85.6912 H   0  0  0  0  0  0  0  0  0  0  0  0
    1.7800   -4.5327   81.3059 H   0  0  0  0  0  0  0  0  0  0  0  0
    0.2907   -3.7185   80.8909 H   0  0  0  0  0  0  0  0  0  0  0  0
    0.2874   -4.9867   82.0928 H   0  0  0  0  0  0  0  0  0  0  0  0
   -7.4167   -1.8377   86.3182 H   0  0  0  0  0  0  0  0  0  0  0  0
   -5.0994   -5.3727   86.4079 H   0  0  0  0  0  0  0  0  0  0  0  0
   -3.6033   -4.4366   84.7207 H   0  0  0  0  0  0  0  0  0  0  0  0
   -4.1007   -1.0064   83.2531 H   0  0  0  0  0  0  0  0  0  0  0  0
   -3.7872   -2.6530   82.6296 H   0  0  0  0  0  0  0  0  0  0  0  0
    6.7882   -4.3342   80.3157 H   0  0  0  0  0  0  0  0  0  0  0  0
  1  3  2  0  0  0  0
  1 13  1  0  0  0  0
  1 14  1  0  0  0  0
  2 15  1  0  0  0  0
  2 16  2  0  0  0  0
  2 26  1  0  0  0  0
  3 16  1  0  0  0  0
  3 19  1  0  0  0  0
  4 26  1  0  0  0  0
  4 33  1  0  0  0  0
  4 34  1  0  0  0  0
  4 35  1  0  0  0  0
  5 20  2  0  0  0  0
  5 21  1  0  0  0  0
  5 36  1  0  0  0  0
  6 21  2  0  0  0  0
  6 22  1  0  0  0  0
  6 25  1  0  0  0  0
  7  8  1  0  0  0  0
  7 12  1  0  0  0  0
  7 37  1  0  0  0  0
  7 38  1  0  0  0  0
  8  9  1  0  0  0  0
  8 39  1  0  0  0  0
  8 40  1  0  0  0  0
  9 10  1  0  0  0  0
  9 41  1  0  0  0  0
  9 42  1  0  0  0  0
 10 11  1  0  0  0  0
 10 29  2  0  0  0  0
 11 12  2  0  0  0  0
 11 13  1  0  0  0  0
 12 28  1  0  0  0  0
 13 32  2  0  0  0  0
 14 15  2  0  0  0  0
 14 43  1  0  0  0  0
 15 44  1  0  0  0  0
 16 17  1  0  0  0  0
 17 27  1  0  0  0  0
 17 30  2  0  0  0  0
 18 26  1  0  0  0  0
 18 27  1  0  0  0  0
 18 31  2  0  0  0  0
 19 45  1  0  0  0  0
 19 46  1  0  0  0  0
 19 47  1  0  0  0  0
 20 23  1  0  0  0  0
 20 24  1  0  0  0  0
 21 48  1  0  0  0  0
 22 23  2  0  0  0  0
 22 49  1  0  0  0  0
 23 50  1  0  0  0  0
 24 27  1  0  0  0  0
 24 51  1  0  0  0  0
 24 52  1  0  0  0  0
 28 53  1  0  0  0  0
M  END
>  <s_pdb_PDB_format_version>
3.0

$$$$
